.SUBCKT 7400  1A 1B 1Y
+     optional: DPWR=$G_DPWR DGND=$G_DGND
+     params: MNTYMXDLY=0 IO_LEVEL=0
U1 nand(2) DPWR DGND
+     1A 1B 1Y
+     DLY_00 IO_STD MNTYMXDLY={MNTYMXDLY} IO_LEVEL={IO_LEVEL}
.model DLY_00 ugate (tplhTY=11ns tplhMX=22ns tphlTY=7ns tphlMX=15ns)
.ENDS  7400


.SUBCKT  74AC00   A0  B0  O0BAR
+  optional: DPWR=$G_DPWR DGND=$G_DGND
+  params: MNTYMXDLY=0 IO_LEVEL=0
u1 nand(2) DPWR DGND
+  A0  B0  O0BAR
+  DLY_MOD IO_AC MNTYMXDLY={MNTYMXDLY} IO_LEVEL={IO_LEVEL}
.model DLY_MOD ugate (
+  TplhMN= 1.5ns     TplhTY= 6.0ns    TplhMX= 8.0ns
+  TphlMN= 1.5ns     TphlTY= 4.5ns    TphlMX= 6.5ns
+  )
.ENDS  74AC00


.SUBCKT  74ACT00   A0  B0  O0BAR
+  optional: DPWR=$G_DPWR DGND=$G_DGND
+  params: MNTYMXDLY=0 IO_LEVEL=0
u1 nand(2) DPWR DGND
+  A0  B0  O0BAR
+  DLY_MOD IO_ACT MNTYMXDLY={MNTYMXDLY} IO_LEVEL={IO_LEVEL}
.model DLY_MOD ugate (
+  TplhMN= 1.5ns     TplhTY= 5.5ns    TplhMX= 9.0ns
+  TphlMN= 1.5ns     TphlTY= 4.0ns    TphlMX= 7.0ns
+  )
.ENDS  74ACT00


.SUBCKT 74ALS00 1A 1B 1Y
+ OPTIONAL: DPWR=$G_DPWR DGND=$G_DGND
+ PARAMS: MNTYMXDLY=0 IO_LEVEL=0
U1 NAND(2) DPWR DGND
+ 1A 1B 1Y
+ DLY_ALS00 IO_ALS00 MNTYMXDLY={MNTYMXDLY} IO_LEVEL={IO_LEVEL}
.MODEL DLY_ALS00 UGATE (TPLHTY=4NS TPHLTY=3NS)
.ENDS 74ALS00


.SUBCKT 74ALS00A  1A 1B 1Y
+     optional: DPWR=$G_DPWR DGND=$G_DGND
+     params: MNTYMXDLY=0 IO_LEVEL=0
U1 nand(2) DPWR DGND
+     1A 1B 1Y
+     DLY_ALS00 IO_ALS00 MNTYMXDLY={MNTYMXDLY} IO_LEVEL={IO_LEVEL}
.model DLY_ALS00 ugate (tplhMN=3ns tplhMX=11ns tphlMN=2ns tphlMX=8ns)
.ENDS  74ALS00A


.SUBCKT 74AS00  1A 1B 1Y
+     optional: DPWR=$G_DPWR DGND=$G_DGND
+     params: MNTYMXDLY=0 IO_LEVEL=0
U1 nand(2) DPWR DGND
+     1A 1B 1Y
+     DLY_AS00 IO_AS00 MNTYMXDLY={MNTYMXDLY} IO_LEVEL={IO_LEVEL}
.model DLY_AS00 ugate (tplhMN=1ns tplhMX=4.5ns tphlMN=1ns tphlMX=4ns)
.ENDS  74AS00


.SUBCKT  74F00   A0  B0  O0BAR
+  optional: DPWR=$G_DPWR DGND=$G_DGND
+  params: MNTYMXDLY=0 IO_LEVEL=0
u1 nand(2) DPWR DGND
+  A0  B0  O0BAR
+  DLY_MOD IO_F MNTYMXDLY={MNTYMXDLY} IO_LEVEL={IO_LEVEL}
.model DLY_MOD ugate (
+  TplhMN= 2.4ns     TplhTY= 3.7ns    TplhMX= 5.0ns
+  TphlMN= 1.5ns     TphlTY= 3.2ns    TphlMX= 4.3ns
+  )
.ENDS  74F00


.SUBCKT 74H00  1A 1B 1Y
+     optional: DPWR=$G_DPWR DGND=$G_DGND
+     params: MNTYMXDLY=0 IO_LEVEL=0
U1 nand(2) DPWR DGND
+     1A 1B 1Y
+     DLY_H00 IO_H MNTYMXDLY={MNTYMXDLY} IO_LEVEL={IO_LEVEL}
.model DLY_H00 ugate (tplhTY=5.9ns tplhMX=10ns tphlTY=6.2ns tphlMX=10ns)
.ENDS  74H00


.SUBCKT 74HC00  1A 1B 1Y
+     optional: DPWR=$G_DPWR DGND=$G_DGND
+     params: MNTYMXDLY=0 IO_LEVEL=0
U1 nand(2) DPWR DGND
+     1A 1B 1Y
+     DLY_HC00 IO_HC MNTYMXDLY={MNTYMXDLY} IO_LEVEL={IO_LEVEL}
.model DLY_HC00 ugate (tplhTY=9ns tplhMX=18ns tphlTY=9ns tphlMX=18ns)
.ENDS  74HC00


.SUBCKT 74HC00A A1 B1 Y1
+ OPTIONAL: DPWR=$G_DPWR DGND=$G_DGND
+ PARAMS: MNTYMXDLY=0 IO_LEVEL=0
U1 NAND(2) DPWR DGND
+ A1 B1 Y1
+ DLY_HC00A IO_HC MNTYMXDLY={MNTYMXDLY} IO_LEVEL={IO_LEVEL}
.MODEL DLY_HC00A UGATE (TPLHMX=15NS TPHLMX=15NS)
.ENDS 74HC00A


.SUBCKT 74HCT00  1A 1B 1Y
+     optional: DPWR=$G_DPWR DGND=$G_DGND
+     params: MNTYMXDLY=0 IO_LEVEL=0
U1 nand(2) DPWR DGND
+     1A 1B 1Y
+     DLY_HCT00 IO_HCT MNTYMXDLY={MNTYMXDLY} IO_LEVEL={IO_LEVEL}
.model DLY_HCT00 ugate (tplhTY=11ns tplhMX=20ns tphlTY=11ns tphlMX=20ns)
.ENDS  74HCT00


.SUBCKT 74HCT00A A1 B1 Y1
+ OPTIONAL: DPWR=$G_DPWR DGND=$G_DGND
+ PARAMS: MNTYMXDLY=0 IO_LEVEL=0
U1 NAND(2) DPWR DGND
+ A1 B1 Y1
+ DLY_HCT00A IO_HCT MNTYMXDLY={MNTYMXDLY} IO_LEVEL={IO_LEVEL}
.MODEL DLY_HCT00A UGATE (TPLHMX=19NS TPHLMX=19NS)
.ENDS 74HCT00A


.SUBCKT 74LS00  1A 1B 1Y
+     optional: DPWR=$G_DPWR DGND=$G_DGND
+     params: MNTYMXDLY=0 IO_LEVEL=0
U1 nand(2) DPWR DGND
+     1A 1B 1Y
+     DLY_LS00 IO_LS MNTYMXDLY={MNTYMXDLY} IO_LEVEL={IO_LEVEL}
.model DLY_LS00 ugate (tplhTY=9ns tplhMX=15ns tphlTY=10ns tphlMX=15ns)
.ENDS  74LS00


.SUBCKT 74S00  1A 1B 1Y
+     optional: DPWR=$G_DPWR DGND=$G_DGND
+     params: MNTYMXDLY=0 IO_LEVEL=0
U1 nand(2) DPWR DGND
+     1A 1B 1Y
+     DLY_S00 IO_S MNTYMXDLY={MNTYMXDLY} IO_LEVEL={IO_LEVEL}
.model DLY_S00 ugate (tplhTY=3ns tplhMX=4.5ns tphlTY=3ns tphlMX=5ns)
.ENDS  74S00


.SUBCKT 7401  1A 1B 1Y
+     optional: DPWR=$G_DPWR DGND=$G_DGND
+     params: MNTYMXDLY=0 IO_LEVEL=0
U1 nand(2) DPWR DGND
+     1A 1B 1Y
+     DLY_01 IO_STD_OC MNTYMXDLY={MNTYMXDLY} IO_LEVEL={IO_LEVEL}
.model DLY_01 ugate (tplhTY=35ns tplhMX=55ns tphlTY=8ns tphlMX=15ns)
.ENDS  7401


.SUBCKT 74ALS01  1A 1B 1Y
+     optional: DPWR=$G_DPWR DGND=$G_DGND
+     params: MNTYMXDLY=0 IO_LEVEL=0
U1 nand(2) DPWR DGND
+     1A 1B 1Y
+     DLY_ALS01 IO_ALS00_OC MNTYMXDLY={MNTYMXDLY} IO_LEVEL={IO_LEVEL}
.model DLY_ALS01 ugate (tplhMN=23ns tplhMX=54ns tphlMN=8ns tphlMX=28ns)
.ENDS  74ALS01


.SUBCKT 74H01  1A 1B 1Y
+     optional: DPWR=$G_DPWR DGND=$G_DGND
+     params: MNTYMXDLY=0 IO_LEVEL=0
U1 nand(2) DPWR DGND
+     1A 1B 1Y
+     DLY_H01 IO_H_OC MNTYMXDLY={MNTYMXDLY} IO_LEVEL={IO_LEVEL}
.model DLY_H01 ugate (tplhTY=10ns tplhMX=15ns tphlTY=7.5ns tphlMX=12ns)
.ENDS  74H01


.SUBCKT 74HC01  1A 1B 1Y
+     optional: DPWR=$G_DPWR DGND=$G_DGND
+     params: MNTYMXDLY=0 IO_LEVEL=0
U1 nand(2) DPWR DGND
+     1A 1B 1Y
+     DLY_HC01 IO_HC_OC MNTYMXDLY={MNTYMXDLY} IO_LEVEL={IO_LEVEL}
.model DLY_HC01 ugate (tplhTY=13ns tplhMX=25ns tphlTY=10ns tphlMX=20ns)
.ENDS  74HC01


.SUBCKT 74LS01  1A 1B 1Y
+     optional: DPWR=$G_DPWR DGND=$G_DGND
+     params: MNTYMXDLY=0 IO_LEVEL=0
U1 nand(2) DPWR DGND
+     1A 1B 1Y
+     DLY_LS01 IO_LS_OC MNTYMXDLY={MNTYMXDLY} IO_LEVEL={IO_LEVEL}
.model DLY_LS01 ugate (tplhTY=17ns tplhMX=32ns tphlTY=15ns tphlMX=28ns)
.ENDS  74LS01


.SUBCKT 7402  1A 1B 1Y
+     optional: DPWR=$G_DPWR DGND=$G_DGND
+     params: MNTYMXDLY=0 IO_LEVEL=0
U1 nor(2) DPWR DGND
+     1A 1B 1Y
+     DLY_02 IO_STD MNTYMXDLY={MNTYMXDLY} IO_LEVEL={IO_LEVEL}
.model DLY_02 ugate (tplhTY=12ns tplhMX=22ns tphlTY=8ns tphlMX=15ns)
.ENDS  7402


.SUBCKT  74AC02   A0  B0  O0BAR
+  optional: DPWR=$G_DPWR DGND=$G_DGND
+  params: MNTYMXDLY=0 IO_LEVEL=0
u1 nor(2) DPWR DGND
+  A0  B0  O0BAR
+  DLY_MOD IO_AC MNTYMXDLY={MNTYMXDLY} IO_LEVEL={IO_LEVEL}
.model DLY_MOD ugate (
+  TplhMN= 1.5ns     TplhTY= 4.0ns    TplhMX= 6.0ns
+  TphlMN= 1.5ns     TphlTY= 4.5ns    TphlMX= 6.5ns
+  )
.ENDS  74AC02


.SUBCKT 74ACT02  1A 1B 1Y
+     optional: DPWR=$G_DPWR DGND=$G_DGND
+     params: MNTYMXDLY=0 IO_LEVEL=0
U1 nor(2) DPWR DGND
+     1A 1B 1Y
+     DLY_ACT02 IO_ACT MNTYMXDLY={MNTYMXDLY} IO_LEVEL={IO_LEVEL}
.model DLY_ACT02 ugate (tplhMN=1.5ns tplhTY=6.1ns tplhMX=9.4ns tphlMN=1.5ns  
+                               tphlTY=5.3ns tphlMX=7.8ns)
.ENDS  74ACT02


.SUBCKT 74ALS02  1A 1B 1Y
+     optional: DPWR=$G_DPWR DGND=$G_DGND
+     params: MNTYMXDLY=0 IO_LEVEL=0
U1 nor(2) DPWR DGND
+     1A 1B 1Y
+     DLY_ALS02 IO_ALS00 MNTYMXDLY={MNTYMXDLY} IO_LEVEL={IO_LEVEL}
.model DLY_ALS02 ugate (tplhMN=3ns tplhMX=12ns tphlMN=3ns tphlMX=10ns)
.ENDS  74ALS02


.SUBCKT 74AS02  1A 1B 1Y
+     optional: DPWR=$G_DPWR DGND=$G_DGND
+     params: MNTYMXDLY=0 IO_LEVEL=0
U1 nor(2) DPWR DGND
+     1A 1B 1Y
+     DLY_AS02 IO_AS00 MNTYMXDLY={MNTYMXDLY} IO_LEVEL={IO_LEVEL}
.model DLY_AS02 ugate (tplhMN=1ns tplhMX=4.5ns tphlMN=1ns tphlMX=4.5ns)
.ENDS  74AS02


.SUBCKT  74F02   A0  B0  O0BAR
+  optional: DPWR=$G_DPWR DGND=$G_DGND
+  params: MNTYMXDLY=0 IO_LEVEL=0
u1 nor(2) DPWR DGND
+  A0  B0  O0BAR
+  DLY_MOD IO_F MNTYMXDLY={MNTYMXDLY} IO_LEVEL={IO_LEVEL}
.model DLY_MOD ugate (
+  TplhMN= 2.5ns     TplhTY= 4.4ns    TplhMX= 5.5ns
+  TphlMN= 1.5ns     TphlTY= 3.2ns    TphlMX= 4.3ns
+  )
.ENDS  74F02


.SUBCKT 74HC02  1A 1B 1Y
+     optional: DPWR=$G_DPWR DGND=$G_DGND
+     params: MNTYMXDLY=0 IO_LEVEL=0
U1 nor(2) DPWR DGND
+     1A 1B 1Y
+     DLY_HC02 IO_HC MNTYMXDLY={MNTYMXDLY} IO_LEVEL={IO_LEVEL}
.model DLY_HC02 ugate (tplhTY=9ns tplhMX=18ns tphlTY=9ns tphlMX=18ns)
.ENDS  74HC02


.SUBCKT 74HC02A A1 B1 Y1
+ OPTIONAL: DPWR=$G_DPWR DGND=$G_DGND
+ PARAMS: MNTYMXDLY=0 IO_LEVEL=0
U1 NOR(2) DPWR DGND
+ A1 B1 Y1
+ DLY_HC02A IO_HC MNTYMXDLY={MNTYMXDLY} IO_LEVEL={IO_LEVEL}
.MODEL DLY_HC02A UGATE (TPLHMX=16NS TPHLMX=16NS)
.ENDS 74HC02A


.SUBCKT 74HCT02  1A 1B 1Y
+     optional: DPWR=$G_DPWR DGND=$G_DGND
+     params: MNTYMXDLY=0 IO_LEVEL=0
U1 nor(2) DPWR DGND
+     1A 1B 1Y
+     DLY_HCT02 IO_HCT MNTYMXDLY={MNTYMXDLY} IO_LEVEL={IO_LEVEL}
.model DLY_HCT02 ugate (tplhTY=11ns tplhMX=20ns tphlTY=11ns tphlMX=20ns)
.ENDS  74HCT02


.SUBCKT 74LS02  1A 1B 1Y
+     optional: DPWR=$G_DPWR DGND=$G_DGND
+     params: MNTYMXDLY=0 IO_LEVEL=0
U1 nor(2) DPWR DGND
+     1A 1B 1Y
+     DLY_LS02 IO_LS MNTYMXDLY={MNTYMXDLY} IO_LEVEL={IO_LEVEL}
.model DLY_LS02 ugate (tplhTY=10ns tplhMX=15ns tphlTY=10ns tphlMX=15ns)
.ENDS  74LS02


.SUBCKT 74S02  1A 1B 1Y
+     optional: DPWR=$G_DPWR DGND=$G_DGND
+     params: MNTYMXDLY=0 IO_LEVEL=0
U1 nor(2) DPWR DGND
+     1A 1B 1Y
+     DLY_S02 IO_S MNTYMXDLY={MNTYMXDLY} IO_LEVEL={IO_LEVEL}
.model DLY_S02 ugate (tplhTY=3.5ns tplhMX=5.5ns tphlTY=3.5ns tphlMX=5.5ns)
.ENDS  74S02


.SUBCKT 7403  1A 1B 1Y
+     optional: DPWR=$G_DPWR DGND=$G_DGND
+     params: MNTYMXDLY=0 IO_LEVEL=0
U1 nand(2) DPWR DGND
+     1A 1B 1Y
+     DLY_03 IO_STD_OC MNTYMXDLY={MNTYMXDLY} IO_LEVEL={IO_LEVEL}
.model DLY_03 ugate (tplhTY=35ns tplhMX=45ns tphlTY=8ns tphlMX=15ns)
.ENDS  7403


.SUBCKT 74ALS03 1A 1B 1Y
+ OPTIONAL: DPWR=$G_DPWR DGND=$G_DGND
+ PARAMS: MNTYMXDLY=0 IO_LEVEL=0
U1 NAND(2) DPWR DGND
+ 1A 1B 1Y
+ DLY_ALS00 IO_ALS00_OC MNTYMXDLY={MNTYMXDLY} IO_LEVEL={IO_LEVEL}
.MODEL DLY_ALS00 UGATE (TPLHTY=8NS TPHLTY=12NS)
.ENDS 74ALS03


.SUBCKT 74ALS03B  1A 1B 1Y
+     optional: DPWR=$G_DPWR DGND=$G_DGND
+     params: MNTYMXDLY=0 IO_LEVEL=0
U1 nand(2) DPWR DGND
+     1A 1B 1Y
+     DLY_ALS03 IO_ALS00_OC MNTYMXDLY={MNTYMXDLY} IO_LEVEL={IO_LEVEL}
.model DLY_ALS03 ugate (tplhMN=20ns tplhMX=50ns tphlMN=3ns tphlMX=13ns)
.ENDS  74ALS03B


.SUBCKT 74HC03  1A 1B 1Y
+     optional: DPWR=$G_DPWR DGND=$G_DGND
+     params: MNTYMXDLY=0 IO_LEVEL=0
U1 nand(2) DPWR DGND
+     1A 1B 1Y
+     DLY_HC03 IO_HC_OC MNTYMXDLY={MNTYMXDLY} IO_LEVEL={IO_LEVEL}
.model DLY_HC03 ugate (tplhTY=13ns tplhMX=25ns tphlTY=10ns tphlMX=20ns)
.ENDS  74HC03


.SUBCKT 74HC03A A1 B1 Y1
+ OPTIONAL: DPWR=$G_DPWR DGND=$G_DGND
+ PARAMS: MNTYMXDLY=0 IO_LEVEL=0
U1 NAND(2) DPWR DGND
+ A1 B1 Y1
+ DLY_HC03A IO_HC_OC MNTYMXDLY={MNTYMXDLY} IO_LEVEL={IO_LEVEL}
.MODEL DLY_HC03A UGATE (TPLHMX=24NS TPHLMX=24NS)
.ENDS 74HC03A


.SUBCKT 74HCT03 1A 1B 1Y
+ OPTIONAL: DPWR=$G_DPWR DGND=$G_DGND
+ PARAMS: MNTYMXDLY=0 IO_LEVEL=0
U1 NAND(2) DPWR DGND
+ 1A 1B 1Y
+ DLY_HCT03 IO_HCT_OC MNTYMXDLY={MNTYMXDLY} IO_LEVEL={IO_LEVEL}
.MODEL DLY_HCT03 UGATE (TPLHTY=12NS TPLHMX=24NS TPHLTY=12NS TPHLMX=24NS)
.ENDS 74HCT03


.SUBCKT 74LS03  1A 1B 1Y
+     optional: DPWR=$G_DPWR DGND=$G_DGND
+     params: MNTYMXDLY=0 IO_LEVEL=0
U1 nand(2) DPWR DGND
+     1A 1B 1Y
+     DLY_LS03 IO_LS_OC MNTYMXDLY={MNTYMXDLY} IO_LEVEL={IO_LEVEL}
.model DLY_LS03 ugate (tplhTY=17ns tplhMX=32ns tphlTY=15ns tphlMX=28ns)
.ENDS  74LS03


.SUBCKT 74S03  1A 1B 1Y
+     optional: DPWR=$G_DPWR DGND=$G_DGND
+     params: MNTYMXDLY=0 IO_LEVEL=0
U1 nand(2) DPWR DGND
+     1A 1B 1Y
+     DLY_S03 IO_S_OC MNTYMXDLY={MNTYMXDLY} IO_LEVEL={IO_LEVEL}
.model DLY_S03 ugate (tplhMN=2ns tplhTY=5ns tplhMX=7.5ns tphlMN=2ns tphlTY=4.5ns 
+                                  tphlMX=7ns)
.ENDS  74S03


.SUBCKT 7404  1A  1Y
+     optional: DPWR=$G_DPWR DGND=$G_DGND
+     params: MNTYMXDLY=0 IO_LEVEL=0
U1 inv DPWR DGND
+     1A 1Y
+     DLY_04 IO_STD MNTYMXDLY={MNTYMXDLY} IO_LEVEL={IO_LEVEL}
.model DLY_04 ugate (tplhTY=12ns tplhMX=22ns tphlTY=8ns tphlMX=15ns)
.ENDS  7404


.SUBCKT  74AC04   A0  O0BAR
+  optional: DPWR=$G_DPWR DGND=$G_DGND
+  params: MNTYMXDLY=0 IO_LEVEL=0
u1 inv DPWR DGND
+  A0  O0BAR
+  DLY_MOD IO_AC MNTYMXDLY={MNTYMXDLY} IO_LEVEL={IO_LEVEL}
.model DLY_MOD ugate (
+  TplhMN= 1.5ns     TplhTY= 4.0ns    TplhMX= 7.0ns
+  TphlMN= 1.5ns     TphlTY= 3.5ns    TphlMX= 6.5ns
+  )
.ENDS  74AC04


.SUBCKT 74ACT04  1A  1Y
+     optional: DPWR=$G_DPWR DGND=$G_DGND
+     params: MNTYMXDLY=0 IO_LEVEL=0
U1 inv DPWR DGND
+     1A 1Y
+     DLY_ACT04 IO_ACT MNTYMXDLY={MNTYMXDLY} IO_LEVEL={IO_LEVEL}
.model DLY_ACT04 ugate (tplhMN=1.5ns tplhTY=5.3ns tplhMX=9ns tphlMN=1.5ns
+                                 tphlTY=6.4ns tphlMX=8.7ns)
.ENDS  74ACT04


.SUBCKT 74ALS04 1A 1Y
+ OPTIONAL: DPWR=$G_DPWR DGND=$G_DGND
+ PARAMS: MNTYMXDLY=0 IO_LEVEL=0
U1 INV DPWR DGND
+ 1A 1Y
+ DLY_ALS04 IO_ALS00 MNTYMXDLY={MNTYMXDLY} IO_LEVEL={IO_LEVEL}
.MODEL DLY_ALS04 UGATE (TPLHTY=4NS TPHLTY=3NS)
.ENDS 74ALS04


.SUBCKT 74ALS04B  1A  1Y
+     optional: DPWR=$G_DPWR DGND=$G_DGND
+     params: MNTYMXDLY=0 IO_LEVEL=0
U1 inv DPWR DGND
+     1A 1Y
+     DLY_ALS04 IO_ALS00 MNTYMXDLY={MNTYMXDLY} IO_LEVEL={IO_LEVEL}
.model DLY_ALS04 ugate (tplhMN=3ns tplhMX=11ns tphlMN=2ns tphlMX=8ns)
.ENDS  74ALS04B


.SUBCKT 74AS04  1A  1Y
+     optional: DPWR=$G_DPWR DGND=$G_DGND
+     params: MNTYMXDLY=0 IO_LEVEL=0
U1 inv DPWR DGND
+     1A 1Y
+     DLY_AS04 IO_AS00 MNTYMXDLY={MNTYMXDLY} IO_LEVEL={IO_LEVEL}
.model DLY_AS04 ugate (tplhMN=1ns tplhMX=5ns tphlMN=1ns tphlMX=4ns)
.ENDS  74AS04


.SUBCKT  74F04   A0  O0BAR
+  optional: DPWR=$G_DPWR DGND=$G_DGND
+  params: MNTYMXDLY=0 IO_LEVEL=0
u1 inv DPWR DGND
+  A0  O0BAR
+  DLY_MOD IO_F MNTYMXDLY={MNTYMXDLY} IO_LEVEL={IO_LEVEL}
.model DLY_MOD ugate (
+  TplhMN= 2.4ns     TplhTY= 3.7ns    TplhMX= 5.0ns
+  TphlMN= 1.5ns     TphlTY= 3.2ns    TphlMX= 4.3ns
+  )
.ENDS  74F04


.SUBCKT 74H04  1A  1Y
+     optional: DPWR=$G_DPWR DGND=$G_DGND
+     params: MNTYMXDLY=0 IO_LEVEL=0
U1 inv DPWR DGND
+     1A 1Y
+     DLY_H04 IO_H MNTYMXDLY={MNTYMXDLY} IO_LEVEL={IO_LEVEL}
.model DLY_H04 ugate (tplhTY=6ns tplhMX=10ns tphlTY=6.5ns tphlMX=10ns)
.ENDS  74H04


.SUBCKT 74HC04  1A  1Y
+     optional: DPWR=$G_DPWR DGND=$G_DGND
+     params: MNTYMXDLY=0 IO_LEVEL=0
U1 inv DPWR DGND
+     1A 1Y
+     DLY_HC04 IO_HC MNTYMXDLY={MNTYMXDLY} IO_LEVEL={IO_LEVEL}
.model DLY_HC04 ugate (tplhTY=9ns tplhMX=19ns tphlTY=9ns tphlMX=19ns)
.ENDS  74HC04


.SUBCKT 74HC04A A1 Y1
+ OPTIONAL: DPWR=$G_DPWR DGND=$G_DGND
+ PARAMS: MNTYMXDLY=0 IO_LEVEL=0
U1 INV DPWR DGND
+ A1 Y1
+ DLY_HC04A IO_HC MNTYMXDLY={MNTYMXDLY} IO_LEVEL={IO_LEVEL}
.MODEL DLY_HC04A UGATE (TPLHMX=15NS TPHLMX=15NS)
.ENDS 74HC04A


.SUBCKT 74HCT04  1A  1Y
+     optional: DPWR=$G_DPWR DGND=$G_DGND
+     params: MNTYMXDLY=0 IO_LEVEL=0
U1 inv DPWR DGND
+     1A 1Y
+     DLY_HCT04 IO_HCT MNTYMXDLY={MNTYMXDLY} IO_LEVEL={IO_LEVEL}
.model DLY_HCT04 ugate (tplhTY=14ns tplhMX=20ns tphlTY=14ns tphlMX=20ns)
.ENDS  74HCT04


.SUBCKT 74HCT04A A1 Y1
+ OPTIONAL: DPWR=$G_DPWR DGND=$G_DGND
+ PARAMS: MNTYMXDLY=0 IO_LEVEL=0
U1 INV DPWR DGND
+ A1 Y1
+ DLY_HCT04A IO_HCT MNTYMXDLY={MNTYMXDLY} IO_LEVEL={IO_LEVEL}
.MODEL DLY_HCT04A UGATE (TPLHMX=15NS TPHLMX=17NS)
.ENDS 74HCT04A


.SUBCKT 74LS04  1A  1Y
+     optional: DPWR=$G_DPWR DGND=$G_DGND
+     params: MNTYMXDLY=0 IO_LEVEL=0
U1 inv DPWR DGND
+     1A 1Y
+     DLY_LS04 IO_LS MNTYMXDLY={MNTYMXDLY} IO_LEVEL={IO_LEVEL}
.model DLY_LS04 ugate (tplhTY=9ns tplhMX=15ns tphlTY=10ns tphlMX=15ns)
.ENDS  74LS04


.SUBCKT 74S04  1A  1Y
+     optional: DPWR=$G_DPWR DGND=$G_DGND
+     params: MNTYMXDLY=0 IO_LEVEL=0
U1 inv DPWR DGND
+     1A 1Y
+     DLY_S04 IO_S MNTYMXDLY={MNTYMXDLY} IO_LEVEL={IO_LEVEL}
.model DLY_S04 ugate (tplhTY=3ns tplhMX=4.5ns tphlTY=3ns tphlMX=5ns)
.ENDS  74S04


.SUBCKT 7405  1A  1Y
+     optional: DPWR=$G_DPWR DGND=$G_DGND
+     params: MNTYMXDLY=0 IO_LEVEL=0
U1 inv DPWR DGND
+     1A 1Y
+     DLY_05 IO_STD_OC MNTYMXDLY={MNTYMXDLY} IO_LEVEL={IO_LEVEL}
.model DLY_05 ugate (tplhTY=40ns tplhMX=55ns tphlTY=8ns tphlMX=15ns)
.ENDS  7405


.SUBCKT 74AC05  A1  Y1
+     optional: DPWR=$G_DPWR DGND=$G_DGND
+     params: MNTYMXDLY=0 IO_LEVEL=0
U1 inv DPWR DGND
+     A1 Y1
+     DLY_AC05 IO_AC_OC MNTYMXDLY={MNTYMXDLY} IO_LEVEL={IO_LEVEL}
.model DLY_AC05 ugate (tplhMN=1.5ns tplhMX=6ns tphlMN=1.5ns tphlMX=6ns)
.ENDS  74AC05


.SUBCKT 74ACT05  A1  Y1
+     optional: DPWR=$G_DPWR DGND=$G_DGND
+     params: MNTYMXDLY=0 IO_LEVEL=0
U1 inv DPWR DGND
+     A1 Y1
+     DLY_ACT05 IO_ACT_OC MNTYMXDLY={MNTYMXDLY} IO_LEVEL={IO_LEVEL}
.model DLY_ACT05 ugate (tplhMN=1.5ns tplhMX=8.5ns tphlMN=1.5ns tphlMX=8ns)
.ENDS  74ACT05


.SUBCKT 74ALS05 1A 1Y
+ OPTIONAL: DPWR=$G_DPWR DGND=$G_DGND
+ PARAMS: MNTYMXDLY=0 IO_LEVEL=0
U1 INV DPWR DGND
+ 1A 1Y
+ DLY_ALS05 IO_ALS00_OC MNTYMXDLY={MNTYMXDLY} IO_LEVEL={IO_LEVEL}
.MODEL DLY_ALS05 UGATE (TPLHTY=13NS TPHLTY=8NS)
.ENDS 74ALS05


.SUBCKT 74ALS05A  1A  1Y
+     optional: DPWR=$G_DPWR DGND=$G_DGND
+     params: MNTYMXDLY=0 IO_LEVEL=0
U1 inv DPWR DGND
+     1A 1Y
+     DLY_ALS05 IO_ALS00_OC MNTYMXDLY={MNTYMXDLY} IO_LEVEL={IO_LEVEL}
.model DLY_ALS05 ugate (tplhMN=23ns tplhMX=54ns tphlMN=4ns tphlMX=14ns)
.ENDS  74ALS05A


.SUBCKT 74H05  1A  1Y
+     optional: DPWR=$G_DPWR DGND=$G_DGND
+     params: MNTYMXDLY=0 IO_LEVEL=0
U1 inv DPWR DGND
+     1A 1Y
+     DLY_H05 IO_H_OC MNTYMXDLY={MNTYMXDLY} IO_LEVEL={IO_LEVEL}
.model DLY_H05 ugate (tplhTY=10ns tplhMX=15ns tphlTY=7.5ns tphlMX=12ns)
.ENDS  74H05


.SUBCKT 74HC05  1A  1Y
+     optional: DPWR=$G_DPWR DGND=$G_DGND
+     params: MNTYMXDLY=0 IO_LEVEL=0
U1 inv DPWR DGND
+     1A 1Y
+     DLY_HC05 IO_HC_OC MNTYMXDLY={MNTYMXDLY} IO_LEVEL={IO_LEVEL}
.model DLY_HC05 ugate (tplhTY=13ns tplhMX=23ns tphlTY=9ns tphlMX=17ns)
.ENDS  74HC05


.SUBCKT 74LS05  1A  1Y
+     optional: DPWR=$G_DPWR DGND=$G_DGND
+     params: MNTYMXDLY=0 IO_LEVEL=0
U1 inv DPWR DGND
+     1A 1Y
+     DLY_LS05 IO_LS_OC MNTYMXDLY={MNTYMXDLY} IO_LEVEL={IO_LEVEL}
.model DLY_LS05 ugate (tplhTY=17ns tplhMX=32ns tphlTY=15ns tphlMX=28ns)
.ENDS  74LS05


.SUBCKT 74S05  1A  1Y
+     optional: DPWR=$G_DPWR DGND=$G_DGND
+     params: MNTYMXDLY=0 IO_LEVEL=0
U1 inv DPWR DGND
+     1A 1Y
+     DLY_S05 IO_S_OC MNTYMXDLY={MNTYMXDLY} IO_LEVEL={IO_LEVEL}
.model DLY_S05 ugate (tplhMN=2ns tplhTY=5ns tplhMX=7.5ns tphlMN=2ns tphlTY=4.5ns 
+                                 tphlMX=7ns)
.ENDS  74S05


.SUBCKT 7406  1A  1Y
+     optional: DPWR=$G_DPWR DGND=$G_DGND
+     params: MNTYMXDLY=0 IO_LEVEL=0
U1 inv DPWR DGND
+     1A 1Y
+     DLY_06 IO_STD_OC MNTYMXDLY={MNTYMXDLY} IO_LEVEL={IO_LEVEL}
.model DLY_06 ugate (tplhTY=10ns tplhMX=15ns tphlTY=15ns tphlMX=23ns)
.ENDS  7406


.SUBCKT 74F06 A0 Y0
+ OPTIONAL: DPWR=$G_DPWR DGND=$G_DGND
+ PARAMS: MNTYMXDLY=0 IO_LEVEL=0
U1 INV DPWR DGND
+ A0 Y0
+ DLY_F06 IO_F_OC MNTYMXDLY={MNTYMXDLY} IO_LEVEL={IO_LEVEL}
.MODEL DLY_F06 UGATE (TPLHMN=2NS TPLHTY=3.5NS TPLHMX=6NS
+                     TPHLMN=1.5NS TPHLTY=3NS TPHLMX=5.5NS)
.ENDS 74F06


.SUBCKT 74F06A A0 Y0
+ OPTIONAL: DPWR=$G_DPWR DGND=$G_DGND
+ PARAMS: MNTYMXDLY=0 IO_LEVEL=0
U1 INV DPWR DGND
+ A0 Y0
+ DLY_F06A IO_F_OC MNTYMXDLY={MNTYMXDLY} IO_LEVEL={IO_LEVEL}
.MODEL DLY_F06A UGATE (TPLHMN=5NS TPLHTY=9NS TPLHMX=11NS
+                     TPHLMN=2NS TPHLTY=4NS TPHLMX=6NS)
.ENDS 74F06A


.SUBCKT 7407  1A  1Y
+     optional: DPWR=$G_DPWR DGND=$G_DGND
+     params: MNTYMXDLY=0 IO_LEVEL=0
U1 buf DPWR DGND
+     1A 1Y
+     DLY_07 IO_STD_OC MNTYMXDLY={MNTYMXDLY} IO_LEVEL={IO_LEVEL}
.model DLY_07 ugate (tplhTY=6ns tplhMX=15ns tphlTY=20ns tphlMX=26ns)
.ENDS  7407


.SUBCKT 74F07 A0 Y0
+ OPTIONAL: DPWR=$G_DPWR DGND=$G_DGND
+ PARAMS: MNTYMXDLY=0 IO_LEVEL=0
U1 BUF DPWR DGND
+ A0 Y0
+ DLY_F07 IO_F_OC MNTYMXDLY={MNTYMXDLY} IO_LEVEL={IO_LEVEL}
.MODEL DLY_F07 UGATE (TPLHMN=2NS TPLHTY=4NS TPLHMX=6NS
+                     TPHLMN=3NS TPHLTY=5NS TPHLMX=7NS)
.ENDS 74F07


.SUBCKT 74F07A A0 Y0
+ OPTIONAL: DPWR=$G_DPWR DGND=$G_DGND
+ PARAMS: MNTYMXDLY=0 IO_LEVEL=0
U1 BUF DPWR DGND
+ A0 Y0
+ DLY_F07 IO_F_OC MNTYMXDLY={MNTYMXDLY} IO_LEVEL={IO_LEVEL}
.MODEL DLY_F07 UGATE (TPLHMN=6NS TPLHTY=10.5NS TPLHMX=13NS
+                     TPHLMN=5NS TPHLTY=7.5NS TPHLMX=10NS)
.ENDS 74F07A


.SUBCKT 74LS07  1A  1Y
+     optional: DPWR=$G_DPWR DGND=$G_DGND
+     params: MNTYMXDLY=0 IO_LEVEL=0
U1 buf DPWR DGND
+     1A 1Y
+     DLY_LS07 IO_LS_OC MNTYMXDLY={MNTYMXDLY} IO_LEVEL={IO_LEVEL}
.model DLY_LS07 ugate (tplhTY=6ns tplhMX=10ns tphlTY=19ns tphlMX=30ns)
.ENDS  74LS07


.SUBCKT 7408  1A 1B  1Y
+     optional: DPWR=$G_DPWR DGND=$G_DGND
+     params: MNTYMXDLY=0 IO_LEVEL=0
U1 and(2) DPWR DGND
+     1A 1B 1Y
+     DLY_08 IO_STD MNTYMXDLY={MNTYMXDLY} IO_LEVEL={IO_LEVEL}
.model DLY_08 ugate (tplhTY=17.5ns tplhMX=27ns tphlTY=12ns tphlMX=19ns)
.ENDS  7408


.SUBCKT  74AC08   A0  B0  O0
+  optional: DPWR=$G_DPWR DGND=$G_DGND
+  params: MNTYMXDLY=0 IO_LEVEL=0
u1 and(2) DPWR DGND
+  A0  B0  O0
+  DLY_MOD IO_AC MNTYMXDLY={MNTYMXDLY} IO_LEVEL={IO_LEVEL}
.model DLY_MOD ugate (
+  TplhMN= 1.5ns     TplhTY= 5.5ns    TplhMX= 7.5ns
+  TphlMN= 1.5ns     TphlTY= 5.5ns    TphlMX= 7.0ns
+  )
.ENDS  74AC08


.SUBCKT 74ACT08  1A 1B  1Y
+     optional: DPWR=$G_DPWR DGND=$G_DGND
+     params: MNTYMXDLY=0 IO_LEVEL=0
U1 and(2) DPWR DGND
+     1A 1B 1Y
+     DLY_ACT08 IO_ACT MNTYMXDLY={MNTYMXDLY} IO_LEVEL={IO_LEVEL}
.model DLY_ACT08 ugate (tplhMN=1.5ns tplhTY=5.8ns tplhMX=8ns tphlMN=1.5ns
+                                    tphlTY=5.2ns tphlMX=7.7ns)
.ENDS  74ACT08


.SUBCKT 74ALS08  1A 1B  1Y
+     optional: DPWR=$G_DPWR DGND=$G_DGND
+     params: MNTYMXDLY=0 IO_LEVEL=0
U1 and(2) DPWR DGND
+     1A 1B 1Y
+     DLY_ALS08 IO_ALS00 MNTYMXDLY={MNTYMXDLY} IO_LEVEL={IO_LEVEL}
.model DLY_ALS08 ugate (tplhMN=4ns tplhMX=14ns tphlMN=3ns tphlMX=10ns)
.ENDS  74ALS08


.SUBCKT 74AS08  1A 1B  1Y
+     optional: DPWR=$G_DPWR DGND=$G_DGND
+     params: MNTYMXDLY=0 IO_LEVEL=0
U1 and(2) DPWR DGND
+     1A 1B 1Y
+     DLY_AS08 IO_AS00 MNTYMXDLY={MNTYMXDLY} IO_LEVEL={IO_LEVEL}
.model DLY_AS08 ugate (tplhMN=1ns tplhMX=5.5ns tphlMN=1ns tphlMX=5.5ns)
.ENDS  74AS08


.SUBCKT  74F08   A0  B0  O0
+  optional: DPWR=$G_DPWR DGND=$G_DGND
+  params: MNTYMXDLY=0 IO_LEVEL=0
u1 and(2) DPWR DGND
+  A0  B0  O0
+  DLY_MOD IO_F MNTYMXDLY={MNTYMXDLY} IO_LEVEL={IO_LEVEL}
.model DLY_MOD ugate (
+  TplhMN= 3.0ns     TplhTY= 4.2ns    TplhMX= 5.6ns
+  TphlMN= 2.5ns     TphlTY= 4.0ns    TphlMX= 5.3ns
+  )
.ENDS  74F08


.SUBCKT 74HC08  1A 1B  1Y
+     optional: DPWR=$G_DPWR DGND=$G_DGND
+     params: MNTYMXDLY=0 IO_LEVEL=0
U1 and(2) DPWR DGND
+     1A 1B 1Y
+     DLY_HC08 IO_HC MNTYMXDLY={MNTYMXDLY} IO_LEVEL={IO_LEVEL}
.model DLY_HC08 ugate (tplhTY=10ns tplhMX=20ns tphlTY=10ns tphlMX=20ns)
.ENDS  74HC08


.SUBCKT 74HC08A A1 B1 Y1
+ OPTIONAL: DPWR=$G_DPWR DGND=$G_DGND
+ PARAMS: MNTYMXDLY=0 IO_LEVEL=0
U1 AND(2) DPWR DGND
+ A1 B1 Y1
+ DLY_HC08A IO_HC MNTYMXDLY={MNTYMXDLY} IO_LEVEL={IO_LEVEL}
.MODEL DLY_HC08A UGATE (TPLHMX=15NS TPHLMX=15NS)
.ENDS 74HC08A


.SUBCKT 74HCT08  1A 1B  1Y
+     optional: DPWR=$G_DPWR DGND=$G_DGND
+     params: MNTYMXDLY=0 IO_LEVEL=0
U1 and(2) DPWR DGND
+     1A 1B 1Y
+     DLY_HCT08 IO_HCT MNTYMXDLY={MNTYMXDLY} IO_LEVEL={IO_LEVEL}
.model DLY_HCT08 ugate (tplhTY=15ns tplhMX=24ns tphlTY=15ns tphlMX=24ns)
.ENDS  74HCT08


.SUBCKT 74HCT08A A1 B1 Y1
+ OPTIONAL: DPWR=$G_DPWR DGND=$G_DGND
+ PARAMS: MNTYMXDLY=0 IO_LEVEL=0
U1 AND(2) DPWR DGND
+ A1 B1 Y1
+ DLY_HCT08A IO_HCT MNTYMXDLY={MNTYMXDLY} IO_LEVEL={IO_LEVEL}
.MODEL DLY_HCT08A UGATE (TPLHMX=19NS TPHLMX=19NS)
.ENDS 74HCT08A


.SUBCKT 74LS08  1A 1B  1Y
+     optional: DPWR=$G_DPWR DGND=$G_DGND
+     params: MNTYMXDLY=0 IO_LEVEL=0
U1 and(2) DPWR DGND
+     1A 1B 1Y
+     DLY_LS08 IO_LS MNTYMXDLY={MNTYMXDLY} IO_LEVEL={IO_LEVEL}
.model DLY_LS08 ugate (tplhTY=8ns tplhMX=15ns tphlTY=10ns tphlMX=20ns)
.ENDS  74LS08


.SUBCKT 74S08  1A 1B  1Y
+     optional: DPWR=$G_DPWR DGND=$G_DGND
+     params: MNTYMXDLY=0 IO_LEVEL=0
U1 and(2) DPWR DGND
+     1A 1B 1Y
+     DLY_S08 IO_S MNTYMXDLY={MNTYMXDLY} IO_LEVEL={IO_LEVEL}
.model DLY_S08 ugate (tplhTY=4.5ns tplhMX=7ns tphlTY=5ns tphlMX=7.5ns)
.ENDS  74S08


.SUBCKT 7409  1A 1B  1Y
+     optional: DPWR=$G_DPWR DGND=$G_DGND
+     params: MNTYMXDLY=0 IO_LEVEL=0
U1 and(2) DPWR DGND
+     1A 1B 1Y
+     DLY_09 IO_STD_OC MNTYMXDLY={MNTYMXDLY} IO_LEVEL={IO_LEVEL}
.model DLY_09 ugate (tplhTY=21ns tplhMX=32ns tphlTY=16ns tphlMX=24ns)
.ENDS  7409


.SUBCKT 74ALS09  1A 1B  1Y
+     optional: DPWR=$G_DPWR DGND=$G_DGND
+     params: MNTYMXDLY=0 IO_LEVEL=0
U1 and(2) DPWR DGND
+     1A 1B 1Y
+     DLY_ALS09 IO_ALS00_OC MNTYMXDLY={MNTYMXDLY} IO_LEVEL={IO_LEVEL}
.model DLY_ALS09 ugate (tplhMN=23ns tplhMX=54ns tphlMN=5ns tphlMX=15ns)
.ENDS  74ALS09


.SUBCKT 74HC09  1A 1B  1Y
+     optional: DPWR=$G_DPWR DGND=$G_DGND
+     params: MNTYMXDLY=0 IO_LEVEL=0
U1 and(2) DPWR DGND
+     1A 1B 1Y
+     DLY_HC09 IO_HC_OC MNTYMXDLY={MNTYMXDLY} IO_LEVEL={IO_LEVEL}
.model DLY_HC09 ugate (tplhTY=13ns tplhMX=25ns tphlTY=10ns tphlMX=20ns)
.ENDS  74HC09


.SUBCKT 74LS09  1A 1B  1Y
+     optional: DPWR=$G_DPWR DGND=$G_DGND
+     params: MNTYMXDLY=0 IO_LEVEL=0
U1 and(2) DPWR DGND
+     1A 1B 1Y
+     DLY_LS09 IO_LS_OC MNTYMXDLY={MNTYMXDLY} IO_LEVEL={IO_LEVEL}
.model DLY_LS09 ugate (tplhTY=20ns tplhMX=35ns tphlTY=17ns tphlMX=35ns)
.ENDS  74LS09


.SUBCKT 74S09  1A 1B  1Y
+     optional: DPWR=$G_DPWR DGND=$G_DGND
+     params: MNTYMXDLY=0 IO_LEVEL=0
U1 and(2) DPWR DGND
+     1A 1B 1Y
+     DLY_S09 IO_S_OC MNTYMXDLY={MNTYMXDLY} IO_LEVEL={IO_LEVEL}
.model DLY_S09 ugate (tplhTY=6.5ns tplhMX=10ns tphlTY=6.5ns tphlMX=10ns)
.ENDS  74S09


.SUBCKT 7410  1A 1B 1C 1Y
+     optional: DPWR=$G_DPWR DGND=$G_DGND
+     params: MNTYMXDLY=0 IO_LEVEL=0
U1 nand(3) DPWR DGND
+     1A 1B 1C 1Y
+     DLY_10 IO_STD MNTYMXDLY={MNTYMXDLY} IO_LEVEL={IO_LEVEL}
.model DLY_10 ugate (tplhTY=11ns tplhMX=22ns tphlTY=7ns tphlMX=15ns)
.ENDS  7410


.SUBCKT  74AC10   A0  B0  C0  O0BAR
+  optional: DPWR=$G_DPWR DGND=$G_DGND
+  params: MNTYMXDLY=0 IO_LEVEL=0
u1 nand(3) DPWR DGND
+  A0  B0  C0  O0BAR
+  DLY_MOD IO_AC MNTYMXDLY={MNTYMXDLY} IO_LEVEL={IO_LEVEL}
.model DLY_MOD ugate (
+  TplhMN= 1.5ns     TplhTY= 4.5ns    TplhMX= 7.0ns
+  TphlMN= 1.5ns     TphlTY= 4.0ns    TphlMX= 6.0ns
+  )
.ENDS  74AC10


.SUBCKT 74ACT10  1A 1B 1C 1Y
+     optional: DPWR=$G_DPWR DGND=$G_DGND
+     params: MNTYMXDLY=0 IO_LEVEL=0
U1 nand(3) DPWR DGND
+     1A 1B 1C 1Y
+     DLY_ACT10 IO_ACT MNTYMXDLY={MNTYMXDLY} IO_LEVEL={IO_LEVEL}
.model DLY_ACT10 ugate (tplhMN=1.5ns tplhTY=5.8ns tplhMX=8.2ns tphlMN=1.5ns
+                                 tphlTY=5.7ns tphlMX=7.4ns)
.ENDS  74ACT10


.SUBCKT 74ALS10 1A 1B 1C 1Y
+ OPTIONAL: DPWR=$G_DPWR DGND=$G_DGND
+ PARAMS: MNTYMXDLY=0 IO_LEVEL=0
U1 NAND(3) DPWR DGND
+ 1A 1B 1C 1Y
+ DLY_ALS10 IO_ALS00 MNTYMXDLY={MNTYMXDLY} IO_LEVEL={IO_LEVEL}
.MODEL DLY_ALS10 UGATE (TPLHTY=4NS TPHLTY=10NS)
.ENDS 74ALS10


.SUBCKT 74ALS10A  1A 1B 1C 1Y
+     optional: DPWR=$G_DPWR DGND=$G_DGND
+     params: MNTYMXDLY=0 IO_LEVEL=0
U1 nand(3) DPWR DGND
+     1A 1B 1C 1Y
+     DLY_ALS10 IO_ALS00 MNTYMXDLY={MNTYMXDLY} IO_LEVEL={IO_LEVEL}
.model DLY_ALS10 ugate (tplhMN=2ns tplhMX=11ns tphlMN=2ns tphlMX=10ns)
.ENDS  74ALS10A


.SUBCKT 74AS10  1A 1B 1C 1Y
+     optional: DPWR=$G_DPWR DGND=$G_DGND
+     params: MNTYMXDLY=0 IO_LEVEL=0
U1 nand(3) DPWR DGND
+     1A 1B 1C 1Y
+     DLY_AS10 IO_AS00 MNTYMXDLY={MNTYMXDLY} IO_LEVEL={IO_LEVEL}
.model DLY_AS10 ugate (tplhMN=1ns tplhMX=4.5ns tphlMN=1ns tphlMX=4.5ns)
.ENDS  74AS10


.SUBCKT  74F10   A0  B0  C0  O0BAR
+  optional: DPWR=$G_DPWR DGND=$G_DGND
+  params: MNTYMXDLY=0 IO_LEVEL=0
u1 nand(3) DPWR DGND
+  A0  B0  C0  O0BAR
+  DLY_MOD IO_F MNTYMXDLY={MNTYMXDLY} IO_LEVEL={IO_LEVEL}
.model DLY_MOD ugate (
+  TplhMN= 2.4ns     TplhTY= 3.7ns    TplhMX= 5.0ns
+  TphlMN= 1.5ns     TphlTY= 3.2ns    TphlMX= 4.3ns
+  )
.ENDS  74F10


.SUBCKT 74H10  1A 1B 1C 1Y
+     optional: DPWR=$G_DPWR DGND=$G_DGND
+     params: MNTYMXDLY=0 IO_LEVEL=0
U1 nand(3) DPWR DGND
+     1A 1B 1C 1Y
+     DLY_H10 IO_H MNTYMXDLY={MNTYMXDLY} IO_LEVEL={IO_LEVEL}
.model DLY_H10 ugate (tplhTY=5.9ns tplhMX=10ns tphlTY=6.3ns tphlMX=10ns)
.ENDS  74H10


.SUBCKT 74HC10  1A 1B 1C 1Y
+     optional: DPWR=$G_DPWR DGND=$G_DGND
+     params: MNTYMXDLY=0 IO_LEVEL=0
U1 nand(3) DPWR DGND
+     1A 1B 1C 1Y
+     DLY_HC10 IO_HC MNTYMXDLY={MNTYMXDLY} IO_LEVEL={IO_LEVEL}
.model DLY_HC10 ugate (tplhTY=10ns tplhMX=19ns tphlTY=10ns tphlMX=19ns)
.ENDS  74HC10


.SUBCKT 74HCT10 1A 1B 1C 1Y
+ OPTIONAL: DPWR=$G_DPWR DGND=$G_DGND
+ PARAMS: MNTYMXDLY=0 IO_LEVEL=0
U1 NAND(3) DPWR DGND
+ 1A 1B 1C 1Y
+ DLY_HCT10 IO_HCT MNTYMXDLY={MNTYMXDLY} IO_LEVEL={IO_LEVEL}
.MODEL DLY_HCT10 UGATE (TPLHTY=14NS TPLHMX=24NS TPHLTY=14NS TPHLMX=24NS )
.ENDS 74HCT10


.SUBCKT 74LS10  1A 1B 1C 1Y
+     optional: DPWR=$G_DPWR DGND=$G_DGND
+     params: MNTYMXDLY=0 IO_LEVEL=0
U1 nand(3) DPWR DGND
+     1A 1B 1C 1Y
+     DLY_LS10 IO_LS MNTYMXDLY={MNTYMXDLY} IO_LEVEL={IO_LEVEL}
.model DLY_LS10 ugate (tplhTY=9ns tplhMX=15ns tphlTY=10ns tphlMX=15ns)
.ENDS  74LS10


.SUBCKT 74S10  1A 1B 1C 1Y
+     optional: DPWR=$G_DPWR DGND=$G_DGND
+     params: MNTYMXDLY=0 IO_LEVEL=0
U1 nand(3) DPWR DGND
+     1A 1B 1C 1Y
+     DLY_S10 IO_S MNTYMXDLY={MNTYMXDLY} IO_LEVEL={IO_LEVEL}
.model DLY_S10 ugate (tplhTY=3ns tplhMX=4.5ns tphlTY=3ns tphlMX=5ns)
.ENDS  74S10


.SUBCKT 7411 A B C O
+ OPTIONAL: DPWR=$G_DPWR DGND=$G_DGND
+ PARAMS: MNTYMXDLY=0 IO_LEVEL=0
U1 AND(3) DPWR DGND
+ A B C O
+ DLY_11 IO_STD MNTYMXDLY={MNTYMXDLY} IO_LEVEL={IO_LEVEL}
.MODEL DLY_11 UGATE (TPLHMX=27NS TPHLMX=19NS)
.ENDS 7411


.SUBCKT  74AC11   A0  B0  C0  O0
+  optional: DPWR=$G_DPWR DGND=$G_DGND
+  params: MNTYMXDLY=0 IO_LEVEL=0
u1 and(3) DPWR DGND
+  A0  B0  C0  O0
+  DLY_MOD IO_AC MNTYMXDLY={MNTYMXDLY} IO_LEVEL={IO_LEVEL}
.model DLY_MOD ugate (
+  TplhMN= 1.5ns     TplhTY= 4.0ns    TplhMX= 8.0ns
+  TphlMN= 1.5ns     TphlTY= 4.0ns    TphlMX= 7.0ns
+  )
.ENDS  74AC11


.SUBCKT 74ACT11  1A 1B 1C 1Y
+     optional: DPWR=$G_DPWR DGND=$G_DGND
+     params: MNTYMXDLY=0 IO_LEVEL=0
U1 and(3) DPWR DGND
+     1A 1B 1C 1Y
+     DLY_ACT11 IO_ACT MNTYMXDLY={MNTYMXDLY} IO_LEVEL={IO_LEVEL}
.model DLY_ACT11 ugate (tplhMN=1.5ns tplhTY=6.5ns tplhMX=8.6ns tphlMN=1.5ns
+                                   tphlTY=5.5ns tphlMX=7.9ns)
.ENDS  74ACT11


.SUBCKT 74ALS11 1A 1B 1C 1Y
+ OPTIONAL: DPWR=$G_DPWR DGND=$G_DGND
+ PARAMS: MNTYMXDLY=0 IO_LEVEL=0
U1 AND(3) DPWR DGND
+ 1A 1B 1C 1Y
+ DLY_ALS11 IO_ALS00 MNTYMXDLY={MNTYMXDLY} IO_LEVEL={IO_LEVEL}
.MODEL DLY_ALS11 UGATE (TPLHTY=12NS TPHLTY=6NS)
.ENDS 74ALS11


.SUBCKT 74ALS11A  1A 1B 1C 1Y
+     optional: DPWR=$G_DPWR DGND=$G_DGND
+     params: MNTYMXDLY=0 IO_LEVEL=0
U1 and(3) DPWR DGND